reports/poster/ias2026/research/validation_runs/cross_tool_final/pack/results/pandapower_branch_flows.csv
idx,from_bus,to_bus,P_from_MW,Q_from_Mvar,P_to_MW,Q_to_Mvar
0.0,1.0,2.0,37.94850810923751,-18.68424191760289,-37.89018436836578,-56.12364775802694
1.0,1.0,39.0,-37.9485081101653,18.68424191880811,37.99426437874756,-98.18510621912021
2.0,2.0,3.0,487.05180790671784,201.39316801543313,-483.61145174462706,-188.06618325282713
3.0,2.0,25.0,-13.075238538112187,-18.19252618782765,13.093438130400944,2.5471687360456783
4.0,3.0,4.0,-40.29932580420935,35.25104146786795,40.34834026214053,-56.3776378771458
5.0,3.0,18.0,-76.08922245147502,-97.184858214677,76.23524319442777,77.30920685753905
6.0,4.0,5.0,-229.97842842900695,59.55592932327103,230.44530163674898,-65.1717758479895
7.0,4.0,14.0,-260.3699118319781,-89.05385570947158,260.9778045525828,85.1110955891001
8.0,5.0,6.0,-480.84185576809784,189.02744445392784,481.39449321989025,-186.03142377471136
9.0,5.0,8.0,250.3965541311835,69.9347400582383,-249.82983361726215,-76.15197789870555
10.0,6.0,7.0,369.7357276412336,54.17127162013111,-368.8601479074674,-51.52640140163453
11.0,6.0,11.0,-285.1302228633765,-235.9516730238866,286.10519455830377,233.7273337639446
12.0,7.0,8.0,135.06014790852697,-32.4735985982657,-134.97959739238033,26.007350463983485
13.0,8.0,9.0,-137.19056898750335,-126.45537256417488,137.93191433529816,100.37390165038983
14.0,9.0,39.0,-137.931914338084,-100.37390164757278,138.1292157182527,-20.61886101828353
15.0,10.0,11.0,348.3766961597711,241.44605937867692,-347.6699839698698,-241.2514101147332
16.0,10.0,13.0,376.6233018402747,51.12068106472431,-376.05922644035826,-52.51797250989749
17.0,13.0,14.0,317.49681430731005,26.58375688689653,-316.5960948427008,-33.94382547605626
18.0,14.0,15.0,55.618290289537754,-51.1672701127135,-55.54392333396186,14.947606019594637
19.0,15.0,16.0,-264.45607666639125,-167.9476060190559,265.2966162935481,158.97566443232841
20.0,16.0,17.0,304.6509766145809,34.50326619511466,-304.0241775046309,-40.62968008317257
21.0,16.0,19.0,-470.6876726639507,-115.13044591469779,474.1937586185194,124.81987582702165
22.0,16.0,21.0,-363.8182847049486,-6.1491074676612385,364.82160720991334,-3.900600988913517
23.0,16.0,24.0,-64.44163553973019,-104.49937724302764,64.48236790299646,98.07885241712566
24.0,17.0,18.0,234.67912749515745,98.86031453615871,-234.2352431948011,-107.30920685731508
25.0,17.0,27.0,69.34505000905506,-58.23063445260263,-69.26386673059415,25.503306300148353
26.0,21.0,22.0,-638.821607210523,-111.09939900962993,641.9674183140153,138.33121404670638
27.0,22.0,23.0,45.03257968838807,70.508604974715,-44.98627460717772,-90.05960543004036
28.0,23.0,24.0,375.9528300496915,12.56775227557533,-373.0823679037409,-5.878852416178717
29.0,25.0,26.0,83.8234634732851,-58.86881338453877,-83.58513652534546,5.728893707613489
30.0,26.0,27.0,212.4328936886653,82.5841954831127,-211.73613327009934,-101.00330629997497
31.0,26.0,28.0,-109.44060312851582,-50.52336209863595,109.91536047548958,-30.08996985424757
32.0,26.0,29.0,-158.40715403508807,-54.78972709131965,159.71874377243017,-44.359731858453486
33.0,28.0,29.0,-315.91536047569343,2.489969854678087,317.17742296586925,-16.59272219366782
34.0,2.0,30.0,-436.08638499996357,-127.07699406835161,436.08638499996357,163.69942871478614
35.0,31.0,6.0,565.9999979996348,691.4805298674181,-565.9999979996348,-533.984043093323
36.0,10.0,32.0,-724.9999979997547,-292.5667404429079,724.9999979997544,428.8172729012179
37.0,12.0,11.0,-62.490848905688324,-32.70131886182455,62.57271302899971,34.92699971435327
38.0,12.0,13.0,-59.485395983658975,-51.02783907179882,59.58647952819377,53.77604793883974
39.0,19.0,20.0,174.69365428104652,-10.268313160151418,-174.47820214337628,14.51579815993254
40.0,19.0,33.0,-648.8874128974225,-114.55156266588494,651.9999980000533,177.69257474781884
41.0,20.0,34.0,-505.52179785655477,-117.51579815991691,507.9999979999904,167.07980102863098
42.0,22.0,35.0,-686.9999979999458,-208.839819020415,686.9999979999458,278.79963326457033
43.0,23.0,36.0,-578.4665554411218,-7.108146844607319,579.9999979999601,90.52742204541059
44.0,25.0,37.0,-320.91690160349594,9.121644648343896,321.52133799999353,14.24989601622324
45.0,29.0,38.0,-760.3961667368202,-65.94754594726425,764.783381000044,151.49822408012784
